data/state_estimation/SE_PT2040_W/state_estimation_PT2040_W_t3.csv
bus,vm_pu,va_degree,p_mw,q_mvar
1,1.048622,0.099541,0.005790,91.320352
2,1.033159,0.182176,-0.016512,-33.625382
3,1.033482,0.115949,0.082146,-14.405118
4,1.030441,-0.015463,0.033317,-35.444891
5,1.041071,0.083597,-138.348010,65.661504
6,1.040200,0.107954,0.046605,27.027666
7,1.031157,-0.015122,-0.002223,16.728440
8,1.003049,0.027938,0.035493,-0.032449
9,1.021406,-0.059377,0.016250,-0.015673
10,1.031138,-0.039271,0.035210,0.020566
11,1.017705,-0.071559,-0.861086,0.047814
12,1.018844,-0.027883,-0.052466,-0.077445
13,1.019388,-0.071083,-3.300158,-0.975483
14,1.022411,-0.058798,-0.004318,0.034206
15,1.031584,-0.029161,-0.085849,-0.034604
16,1.007104,0.138544,0.129870,-0.021711
17,1.018996,0.067141,-0.006023,0.038325
18,1.011461,0.020977,0.023468,-0.076603
19,1.008850,-0.101227,-0.050451,0.016263
20,1.013041,-0.083225,0.043952,-0.022667
21,1.012799,0.063032,-0.046143,-0.067244
22,1.023576,-0.014944,98.479270,-32.927764
23,1.012175,-0.040016,0.023689,0.043857
24,1.020058,0.121528,0.050169,-0.049494
25,1.009925,0.031855,-138.390239,0.016339
26,1.030397,-0.035773,-2.878304,-0.362286
27,1.028018,-0.045828,0.050161,0.471008
28,1.028332,-0.021219,-0.219188,0.115153
29,1.024667,-0.015193,0.046773,-0.009040
30,1.016688,0.071375,31.006508,-38.751210
31,1.018848,0.139581,-0.036819,0.070525
32,1.019876,0.062319,0.041763,-0.034071
33,1.017701,0.076519,-0.055924,-0.013741
34,1.022593,-0.015751,-0.041008,0.028456
35,1.007412,0.065954,-0.018335,-0.052689
36,1.012817,0.027784,0.008511,-0.023749
37,1.018360,-0.044315,-0.100423,-0.110291
38,1.016659,0.073096,0.007958,0.023642
39,1.019234,0.078911,-0.006813,0.051120
40,1.033500,0.108697,0.019539,0.020038
41,1.016531,0.065294,0.028638,-0.000595
42,1.023944,0.112636,-0.021310,0.041241
43,1.018756,-0.052642,0.054050,0.014645
44,1.017058,0.084502,0.109901,0.018360
45,1.014902,0.008954,-0.023698,-0.008999
46,1.017453,-0.018360,0.120336,0.055056
47,1.019566,0.113669,-0.026319,0.083052
48,1.014907,0.070327,-0.015167,0.057392
49,1.016083,0.079261,-0.031641,0.043599
50,1.019357,-0.045733,-138.327517,-0.064576
51,1.021371,0.124142,0.049046,-0.023990
52,1.020253,0.050173,-0.010811,-0.080961
53,1.015000,0.062136,0.023090,-0.035595
54,1.019485,0.231727,-0.063049,-0.011649
55,1.018729,-0.055926,-0.065707,0.002623
56,1.019816,-0.056290,0.087353,0.025021
57,1.016814,0.081431,0.002265,-0.032240
58,1.018390,-0.055079,0.058221,0.058040
59,1.021304,-0.046644,-0.079534,-0.026172
60,1.018000,0.094833,-0.019523,-0.016109
61,1.018889,0.115820,89.932528,-8.403126
62,1.025214,0.148524,0.035011,-0.033752
63,1.023052,0.209187,-0.035326,0.043586
64,1.013013,-0.007438,0.014682,0.073908
65,1.029522,0.124198,0.043128,-0.060056
66,1.018828,0.102802,-0.000723,0.029841
67,1.018079,0.088998,-0.973997,0.058619
68,1.016523,0.062850,-0.006404,-0.007073
69,1.018073,0.079961,-0.071041,-0.013000
70,1.020784,0.101383,0.083143,-0.093383
71,1.019495,0.073889,-0.006844,-0.055437
72,1.017527,0.143639,-0.098516,0.065693
73,1.023429,0.188522,-0.021057,0.002133
74,1.014716,-0.011787,0.027970,-0.044529
75,1.020647,0.157628,-0.032105,0.002111
76,1.018080,-0.055690,-0.026633,-0.098835
77,1.019519,0.207937,0.027333,-0.035009
78,1.019757,0.100975,0.012690,0.049267
79,1.023673,0.166223,0.108288,-0.020656
80,1.034705,-0.020021,0.062370,-0.073896
81,1.032349,0.077502,0.105352,-0.031776
82,1.037644,-0.013650,-0.002264,-0.015313
83,1.036247,0.071825,0.046554,-0.013497
84,1.037182,-0.028810,-0.013577,-0.047432
85,1.028940,0.042450,0.023887,-0.018532
86,1.038396,-0.028297,0.015800,0.041781
87,1.038625,-0.012182,0.043409,0.006511
88,1.034943,0.085561,-0.018189,-0.033551
89,1.037604,-0.018202,0.110305,0.017655
90,1.032204,0.126741,0.005153,-0.046686
91,1.037297,0.087394,0.012385,-0.088399
92,1.027085,0.079908,-0.019116,-0.006843
93,1.031597,0.084832,0.060850,0.013679
94,1.033090,0.080280,0.035713,0.050106
95,1.034638,0.081644,0.012802,0.011608
96,1.043284,0.100831,-0.034897,0.035580
97,1.038846,-0.028001,0.074057,-0.000055
98,1.033718,0.114857,-0.027962,0.020606
99,1.034834,0.113432,-0.041566,-0.038155
100,1.041034,0.000311,-138.302272,0.061558
101,1.031989,0.087412,-0.056540,0.001181
102,1.025243,-0.013868,-0.032945,0.039615
103,1.033567,0.110012,0.127382,-0.036725
104,1.034252,0.088036,-0.026999,0.101895
105,1.031875,-0.016269,-0.034944,-0.045972
106,1.033567,0.181995,0.033005,-0.087848
107,1.026451,-0.015187,0.065689,0.041878
108,1.007314,0.085874,19.672871,2.022764
109,1.010782,-0.041177,-227.957373,-29.643778
110,1.016117,-0.090977,-157.138717,-22.892062
111,1.017101,0.023935,-149.110155,-3.590047
112,1.011772,-0.070240,-45.674435,-41.088963
113,1.020589,-0.070819,-68.443606,-6.957821
114,1.014009,0.088237,29.635077,-30.515035
115,1.012383,0.092066,-56.142748,19.863099
116,1.014004,0.001225,-302.796794,-24.421319
117,1.013452,-0.088562,-36.605110,-6.931748
118,1.021515,0.117179,16.543886,-8.758032
119,1.028081,-0.064255,-189.542612,-45.030792
120,1.013785,0.074645,-43.560711,-9.810017
121,1.016131,-0.048984,-88.320234,-22.676735
122,1.022514,0.054297,-57.823442,-39.976345
123,1.018418,-0.113116,-181.160736,-26.392923
124,1.009411,-0.027909,-123.482342,-14.598334
125,1.014251,-0.047103,-103.125486,-21.992104
126,1.024849,-0.044668,-87.596882,5.335164
127,1.016268,0.118320,11.586989,3.307335
128,1.024568,0.054865,-96.007987,-33.460449
129,1.020629,-0.000014,-228.011334,-4.572465
130,1.013003,0.011062,-320.579487,-9.820541
131,1.023588,-0.059698,-138.618992,-27.981588
132,1.009986,0.075049,39.234120,-2.128484
133,1.002445,-0.009692,-122.816582,32.445853
134,1.012010,0.006219,-170.752404,-0.296541
135,1.022636,-0.094308,-186.131100,-10.930459
136,1.022408,-0.115971,-211.131599,-28.531110
137,1.018947,0.027714,-118.327996,-2.223475
138,1.015871,0.066349,-104.762996,-1.578208
139,1.017005,-0.097303,-147.298627,-14.563161
140,1.013405,-0.146148,-81.248505,-9.158172
141,1.013212,-0.132901,-106.419838,-12.805216
142,1.012370,0.002109,-128.702882,-4.702116
143,1.014028,-0.069018,-42.235738,-3.592207
144,1.010675,0.064482,-64.069898,-4.099035
145,1.009213,0.059457,-186.090394,1.773944
146,1.015171,-0.016916,-2.020011,3.216784
147,1.022438,-0.085781,-62.508766,-9.770811
148,1.006697,0.155543,-0.007754,-0.017083
149,1.017623,-0.079920,-133.724206,-19.805180
150,1.016175,-0.015328,-176.001372,19.042483
151,1.014522,-0.025526,-181.876392,-16.823452
152,1.019989,0.118451,-81.652071,-2.903594
153,1.017202,0.202091,-7.156193,8.130707
154,1.010244,-0.045196,-84.632377,-10.637206
155,1.019401,0.146391,65.152259,-4.965954
156,1.013946,0.095337,-16.485374,7.179645
157,1.013704,0.019945,-80.179564,-0.847676
158,1.020714,0.076147,-26.793408,-2.706277
159,1.025088,0.023542,86.598370,19.269927
160,1.017620,0.129105,44.848360,-5.342401
161,1.014850,0.118770,92.962191,7.798151
162,1.018221,0.157117,29.673820,9.384303
163,1.016899,0.073313,-6.376390,24.573016
164,1.021288,-0.004958,25.534540,16.054954
165,1.007442,0.198821,41.077476,-2.816759
166,1.004039,0.012182,46.952211,-28.594758
167,1.008596,0.154275,-11.580502,24.009341
168,1.018865,-0.068711,-138.173728,-53.156934
169,1.024208,0.039688,119.829647,29.755713
170,1.020026,0.087381,-27.459840,17.701492
171,1.013793,0.029987,-45.722150,-5.676101
172,1.006979,0.156608,-25.422649,4.691806
173,1.017753,0.080044,72.036416,-16.505963
174,1.017295,0.079696,21.044979,-2.807044
175,1.005438,0.067487,53.956412,-15.749715
176,1.004522,0.055742,21.944602,-0.872632
177,1.018312,0.075524,0.032333,-0.818919
178,1.008640,0.149722,28.993043,-5.249258
179,1.017053,0.075503,31.158992,-9.376867
180,1.021146,-0.066250,-0.011846,-0.050763
181,1.022005,0.129907,66.060204,-0.980676
182,1.017597,0.075568,-0.009632,-18.867888
183,1.034473,-0.010450,117.972047,6.905770
184,1.018593,0.072269,0.073889,-0.039906
185,1.025501,-0.053326,-0.114822,-0.000837
186,1.016654,-0.081568,-0.012530,-0.069106
187,1.012434,0.028693,26.474959,13.018490
188,1.012961,0.027861,26.480059,9.649370
189,1.012635,0.027779,26.460559,9.648345
190,1.014192,0.066011,0.099590,-0.041979
191,1.020925,0.241869,184.512242,-29.681865
192,1.019160,0.224986,120.007976,-32.982793
193,1.016087,0.085153,0.069301,-0.014529
194,1.021986,0.149410,120.056269,-21.879985
195,1.019658,0.082448,0.010432,-3.553941
196,1.032227,0.109209,93.014235,-54.208926
197,1.020839,0.122378,0.094465,-0.050786
198,1.029550,0.108927,-0.053968,-22.721691
199,1.020243,0.049127,0.020339,-0.032739
200,1.019818,0.231290,-105.829102,15.486355
201,1.020969,0.231251,32.422107,-8.171349
202,1.019876,0.231205,32.555787,-8.192594
203,1.020671,0.232723,122.603824,-20.738212
204,1.018642,-0.052052,-0.034783,0.009126
205,1.018865,-0.054100,0.047416,0.067543
206,1.018193,0.095642,34.963193,0.669515
207,1.016847,0.094636,35.023054,0.590985
208,1.016170,0.072159,-0.054607,-0.030534
209,1.017549,0.073132,0.008995,-0.069666
210,1.017185,0.072888,-0.035147,0.027762
211,1.017223,0.075068,-0.013342,-0.010523
212,1.026719,0.167086,0.001549,0.092554
213,1.018846,-0.044446,-0.027036,-0.029817
214,1.018723,-0.044302,0.003182,-0.044086
215,1.019644,-0.043405,-0.075583,0.053362
216,1.020032,-0.043727,0.123522,-0.015521
217,1.020517,-0.045777,-0.066801,-0.004269
218,1.018087,0.102966,100.486413,-21.266956
219,1.018135,-0.055000,0.047302,-0.001846
220,1.018226,0.092701,594.029664,15.361851
221,1.017336,0.091009,-0.019920,-0.066066
222,1.016863,-0.016521,235.221802,33.672125
223,1.023314,0.117916,0.038766,-0.011747
224,1.018984,0.117656,-0.046517,-0.050351
225,1.034575,0.186809,95.525091,0.263054
226,1.040369,-0.019805,0.000965,0.033906
227,1.031332,-0.015497,-0.035228,-5.493826
228,1.030401,-0.016153,0.028937,-72.749500
229,1.037463,0.086959,-0.031309,59.871631
230,1.038068,0.086653,-0.032413,8.370635
231,1.031729,0.126992,0.030086,-5.970825
232,1.041618,0.100980,157.402584,-17.310431
233,1.042305,0.101109,157.402704,-19.323572
234,1.038721,-0.009771,117.934471,-11.353402
235,1.038627,-0.010137,118.100886,-11.338486
236,1.038617,-0.010138,118.056911,-11.486138
237,1.034522,0.112594,115.197550,-15.798692
238,1.034581,0.112697,115.205274,-15.716177
239,1.041607,-0.000262,235.194022,27.036913
240,1.042137,-0.000457,235.176770,79.517732
241,1.034433,0.088654,247.847439,-11.543337
242,1.034862,0.087247,247.783592,-41.634550
243,1.034560,0.112899,251.105111,-21.028191
244,1.034661,0.112981,251.044314,-15.752293
245,1.017348,-0.025484,-30.608618,-9.572338
246,1.019334,-0.066789,-13.669687,-3.126073
247,1.016013,-0.080965,-1.485341,0.132817
248,1.018775,0.130339,-0.540824,0.214023
249,1.021742,-0.066070,-3.425575,0.778766
250,1.029702,-0.029304,-29.498594,-22.161319
251,1.016490,0.104974,101.283823,-6.650059
252,1.027641,0.171231,81.203151,-1.826542
253,1.025034,0.168852,54.583824,1.932146
254,1.022968,0.110659,98.030150,-8.388040
255,1.029834,-0.040365,-105.324086,8.962843
256,1.013660,0.063465,-113.976963,-8.876132
257,1.026325,0.117356,-0.706527,0.517258
258,1.019464,0.085043,-0.927421,0.298540
259,1.026134,0.137308,-0.066066,0.328129
260,0.995503,-0.059052,-92.245085,-29.381652
261,1.021244,0.146398,-0.591066,0.297213
262,1.023385,0.124947,68.666935,1.048412
263,1.027060,0.174426,77.239401,-10.217506
264,1.019466,0.120756,91.010269,-10.360250
265,1.022355,0.118105,96.415051,-10.492903
266,1.026936,0.167672,110.400689,-2.078987
267,1.020896,0.157901,78.266614,-47.702522
268,1.033321,0.131227,141.674427,13.827635
269,1.012477,0.115593,0.046829,0.010360
270,1.012575,0.115701,0.078807,-0.090921
271,1.011654,0.134377,0.093365,-0.025801
272,1.008046,0.176249,0.013673,-0.056018
273,1.013064,0.020479,30.049965,-8.201886
274,1.012151,0.020456,0.015245,0.013854
275,1.013722,0.019541,-0.020768,-0.094309
276,1.013077,0.009214,-0.037145,-0.010076
277,1.013477,0.008411,0.021908,-0.013207
278,1.012605,0.006567,-0.001981,0.002312
279,1.012875,0.002633,-0.050690,0.061707
280,1.012949,0.013877,0.065238,0.005263
281,1.013482,0.016569,-0.011637,0.044333
282,1.012599,0.020325,0.074392,0.021179
283,1.010033,0.073964,0.002717,0.096428
284,1.009116,0.062643,0.018810,0.011869
285,1.009294,0.062191,0.037442,-0.036887
286,1.009939,0.058482,-0.034970,0.013168
287,1.002469,-0.006913,0.049119,0.005358
288,1.002773,-0.005655,-0.001549,0.004503
289,1.003893,0.002797,0.044275,0.065789
290,1.006273,0.010640,-0.039857,0.044618
291,1.006977,0.011740,0.081255,0.067991
292,1.006245,0.011628,0.024149,0.003365
293,1.007093,0.026028,25.038139,-8.203262
294,1.007955,0.155761,0.056740,0.056263
295,1.008208,0.154320,0.003982,0.076408
296,1.007763,0.154535,0.019624,-0.117135
297,1.008538,0.153560,0.066092,-0.004145
298,1.008320,0.188575,0.012626,-0.047686
299,1.008274,0.187992,-0.008309,0.040350
300,1.008444,0.188772,-0.080417,-0.069896
301,1.008572,0.179952,0.000113,-0.082278
302,1.008424,0.171282,0.060145,0.029760
303,1.007029,0.161904,-0.116051,-0.022041
304,1.007110,0.162070,-0.056646,-0.015805
